 ****** HSPICE -- H-2013.03-SP2 64-BIT (Aug 26 2013) win64 ******               
  Copyright (C) 2013 Synopsys, Inc. All Rights Reserved.                        
  Unpublished-rights reserved under US copyright laws.
  This program is protected by law and is subject to the
  terms and conditions of the license agreement from Synopsys.
  Use of this program is your acceptance to be bound by the
  license agreement. HSPICE is the trademark of Synopsys, Inc.
  Input File: or.sp                                                             
  Command line options: -i or.sp -o or.lis
  lic:  
  lic: FLEXlm: v10.9.8 
  lic: USER:   Roxy                 HOSTNAME: DESKTOP-S3BDAM1 
  lic: HOSTID: "704d7b45fe95 7cb0c27cd20f 00ffb05fd41f 7cb0c27cd20b 7eb0c27cd20b
  7cb0c27cd20c" PID:  
  lic: Using FLEXlm license file: 
  lic: C:\hspice_lic\synopsys.dat 
  lic: Checkout 1 hspice 
  lic: License/Maintenance for hspice will expire on 31-dec-2019/2019.12 
  lic: NODE LOCKED license on hostid "704d7b45fe95 7cb0c27cd20f 00ffb05fd41f 7cb
 0c27cd20b 7eb0c27cd20
  lic:   
 Init: read install configuration file: C:\synopsys\Hspice_H-2013.03-SP2\meta.cfg
1****** HSPICE -- H-2013.03-SP2 64-BIT (Aug 26 2013) win64 ******               
 ******  
 .option accurate post

  ******  mos   model parameters tnom=  25.000 temp=  25.000 *****
 ***************************************************************************
 ***        model parameters  model name:   0:nmos     model type:nmos   ***
 ***************************************************************************

   *** general parameters ***
    deriv=   0.           

   ***  level 49  model parameters  ***

       hspver=    2006.03               level=         49         
      version=        3.1            paramchk=          0         
       apwarn=          1                lite=          0         
       vgslim=          0             binUnit=          1         
       capMod=          2               xpart=        0.5         
       mobMod=          1              nqsMod=          0         
       stiMod=          0                 elm=          5         
     sfvtflag=          0                 tox=   4.1e-009 meter   
           xj=     1e-007 meter       binflag=          0         
         lmin=          0 meter          lmax=          0 meter   
         wmin=          0 meter          wmax=          0 meter   
         lref=          0 meter          wref=          0 meter   
         lint=1.25702e-008 meter          wint=9.45864e-009 meter   
        lmult=          1               wmult=          1         
           ll=          0                 lln=          1         
           lw=          0                 lwn=          1         
          lwl=          0                  wl=          0         
          wln=          1                  ww=          0         
          wwn=          1                 wwl=          0         
          dwg=-1.20462e-009 m/V             dwb=9.66422e-009 m/V^1/2 
           xl=    -2e-008                  xw=    -1e-008         
           a0=     1.9002                 ags=   0.412538 V^-1    
           b0=-1.06835e-008 meter            b1=    -1e-007 meter   
         keta=0.000250589 V^-1           voff= -0.0946268 V       
        ngate=          0 cm^-3           vbx=          0 V       
          vbm=         -3 V                xt=  1.55e-007 meter   
         vth0=   0.383282 V               nch=2.3549e+017 cm^-3   
         nsub=     6e+016 cm^-3           nlx=1.55647e-007 meter   
       gamma1=          0 V^-1/2       gamma2=          0 V^-1/2  
           k1=   0.591571 V^1/2            k2=  0.0024327         
           k3=      0.001                 k3b=    2.88171 V^-1    
           w0=     1e-007 meter          dvt0=    1.86718         
         dvt1=   0.507095                dvt2= -0.0135063 V^-1    
        dvt0w=          0 meter^-1      dvt1w=          0 meter^-1
        dvt2w=          0 V^-1           dsub= 0.00275603         
         eta0= 0.00137586                etab= 0.00013766 V^-1    
           u0=    275.556 cm^2/V/sec         ua=-1.15024e-009 m/V     
           ub=2.01415e-018 (m/V)^2          uc=4.21711e-011 V^-1    
         vsat=     100227 m/sec            a1= 0.00043771 v^-1    
           a2=   0.958432               delta=       0.01 V       
         rdsw=        105 ohm-um         prwg=        0.5 V^-1    
         prwb=       -0.2 V^-1/2           wr=          1         
         pclm=    0.86502             pdiblc1=   0.238815         
      pdiblc2= 0.00395731             pdiblcb=       -0.1 V^-1    
       pscbe1=6.14039e+010 V/m          pscbe2=5.82299e-008 V/m     
        drout=   0.728508                pvag=   0.171092         
      nfactor=    2.37614                cdsc=    0.00024 f/m^2   
        cdscb=          0 f/V/m^2       cdscd=          0 f/V/m^2 
          cit=          0 f/m^2        alpha0=          0 m/V     
        beta0=         30 V               dlc=1.25702e-008 meter   
          dwc=9.45864e-009 meter           clc=     1e-007 meter   
          cle=        0.6                cgso=  7.32e-010 f/m     
         cgdo=  7.32e-010 f/m            cgbo=     1e-012 f/m     
         cgsl=          0 f/m            cgdl=          0 f/m     
       ckappa=        0.6                  cf=          0 f/m     
         tnom=     300.15 K               kt1=      -0.11 V       
         kt1l=          0                 kt2=      0.022         
          ute=       -1.5                 ua1=  4.31e-009 m/V     
          ub1= -7.61e-018 (m/V)^2         uc1=  -5.6e-011 m/V^2   
           at=      33000 m/s             prt=          0         
          using Berkeley noise model       noiMod=          1         
         noia=     1e+020                noib=      50000         
         noic=  -1.4e-012                  em=   4.1e+007         
           ef=          1                  af=          1         
           kf=          0              gdsnoi=-1.23457e-029         
          using Hspice diodes            using ACM 
          acm=         0                 hdif=         0 meter    
         ldif=         0 meter             js=         0 amp/m^2  
          jsw=         0 amp/m            xti=         0          
            n=         1                   cj=0.000977546 f/m^2    
           mj=  0.361111                   pb=  0.722413 V        
         cjsw=2.24481e-010 f/m             mjsw=       0.1          
          php=  0.722413 V               pbsw (not used)           
       cjgate=2.24481e-010 f/m            cjswg (not used)           
        mjswg (not used)                 pbswg (not used)           
        lketa=-0.00947318               wketa= 0.00102998         
        pketa= 0.00132978               pvth0= -0.0014684         
          pk2= 0.00085306               peta0=     0.0001         
          pu0=  -0.203478                 pua=-2.37215e-011         
          pub=4.74506e-025               pvsat=    901.673         
        prdsw=  -0.688879         
 ***************************************************************************
 ***        model parameters  model name:   0:pmos     model type:pmos   ***
 ***************************************************************************

   *** general parameters ***
    deriv=   0.           

   ***  level 49  model parameters  ***

       hspver=    2006.03               level=         49         
      version=        3.1            paramchk=          0         
       apwarn=          1                lite=          0         
       vgslim=          0             binUnit=          1         
       capMod=          2               xpart=        0.5         
       mobMod=          1              nqsMod=          0         
       stiMod=          0                 elm=          5         
     sfvtflag=          0                 tox=   4.1e-009 meter   
           xj=     1e-007 meter       binflag=          0         
         lmin=          0 meter          lmax=          0 meter   
         wmin=          0 meter          wmax=          0 meter   
         lref=          0 meter          wref=          0 meter   
         lint=2.55821e-008 meter          wint=          0 meter   
        lmult=          1               wmult=          1         
           ll=          0                 lln=          1         
           lw=          0                 lwn=          1         
          lwl=          0                  wl=          0         
          wln=          1                  ww=          0         
          wwn=          1                 wwl=          0         
          dwg=-2.00413e-008 m/V             dwb=1.03982e-008 m/V^1/2 
           xl=    -2e-008                  xw=    -1e-008         
           a0=    1.64232                 ags=   0.393488 V^-1    
           b0=1.14955e-006 meter            b1=3.50869e-006 meter   
         keta=  0.0146913 V^-1           voff=  -0.102545 V       
        ngate=          0 cm^-3           vbx=          0 V       
          vbm=         -3 V                xt=  1.55e-007 meter   
         vth0=  -0.407799 V               nch=4.1589e+017 cm^-3   
         nsub=     6e+016 cm^-3           nlx=7.08582e-008 meter   
       gamma1=          0 V^-1/2       gamma2=          0 V^-1/2  
           k1=   0.581505 V^1/2            k2=  0.0273445         
           k3=          0                 k3b=    10.7067 V^-1    
           w0=     1e-006 meter          dvt0=   0.542739         
         dvt1=   0.349376                dvt2=    0.08174 V^-1    
        dvt0w=          0 meter^-1      dvt1w=          0 meter^-1
        dvt2w=          0 V^-1           dsub=    0.63027         
         eta0=  0.0276906                etab= -0.0693376 V^-1    
           u0=    116.609 cm^2/V/sec         ua=1.5639e-009 m/V     
           ub=     1e-021 (m/V)^2          uc=    -1e-010 V^-1    
         vsat=     182617 m/sec            a1=   0.474966 v^-1    
           a2=    0.31182               delta=       0.01 V       
         rdsw=    309.922 ohm-um         prwg=        0.5 V^-1    
         prwb=       -0.5 V^-1/2           wr=          1         
         pclm=    1.32459             pdiblc1=          0         
      pdiblc2=  0.0136588             pdiblcb=     -0.001 V^-1    
       pscbe1=1.00528e+010 V/m          pscbe2=2.90349e-009 V/m     
        drout=0.000778026                pvag=    3.20271         
      nfactor=    1.92388                cdsc=    0.00024 f/m^2   
        cdscb=          0 f/V/m^2       cdscd=          0 f/V/m^2 
          cit=          0 f/m^2        alpha0=          0 m/V     
        beta0=         30 V               dlc=2.55821e-008 meter   
          dwc=          0 meter           clc=     1e-007 meter   
          cle=        0.6                cgso=  6.57e-010 f/m     
         cgdo=  6.57e-010 f/m            cgbo=     1e-012 f/m     
         cgsl=          0 f/m            cgdl=          0 f/m     
       ckappa=        0.6                  cf=          0 f/m     
         tnom=     300.15 K               kt1=      -0.11 V       
         kt1l=          0                 kt2=      0.022         
          ute=       -1.5                 ua1=  4.31e-009 m/V     
          ub1= -7.61e-018 (m/V)^2         uc1=  -5.6e-011 m/V^2   
           at=      33000 m/s             prt=          0         
          using Berkeley noise model       noiMod=          1         
         noia=   9.9e+018                noib=       2400         
         noic=   1.4e-012                  em=   4.1e+007         
           ef=          1                  af=          1         
           kf=          0              gdsnoi=-1.23457e-029         
          using Hspice diodes            using ACM 
          acm=         0                 hdif=         0 meter    
         ldif=         0 meter             js=         0 amp/m^2  
          jsw=         0 amp/m            xti=         0          
            n=         1                   cj=0.00118422 f/m^2    
           mj=  0.413121                   pb=  0.855252 V        
         cjsw=1.69663e-010 f/m             mjsw=  0.242466          
          php=  0.855252 V               pbsw (not used)           
       cjgate=1.69663e-010 f/m            cjswg (not used)           
        mjswg (not used)                 pbswg (not used)           
        lketa= 0.00587759               wketa= 0.00249485         
        pketa=  0.0022305               pvth0=0.000841403         
          pk2= 0.00147551               peta0=     0.0001         
          pu0=   -1.84325                 pua=-6.92569e-011         
          pub=     1e-021               pvsat=         50         
        prdsw=    9.92224         
  **info** (or.sp:9) DC voltage reset to initial transient source value              in source        0:va                  new dc=  0.1800D+01
 

  
      
 **info** set option symb=1 internally to help for convergence.
 *****************************************************************
 ******  option summary
 ******
 runlvl  = 3         bypass  = 2         
1****** HSPICE -- H-2013.03-SP2 64-BIT (Aug 26 2013) win64 ******               
 ******  
 .option accurate post

  ******  operating point information tnom=  25.000 temp=  25.000 *****
 ***** operating point status is voltage   simulation time is     0.     
    node    =voltage      node    =voltage      node    =voltage

 +0:a       =   1.8000  0:b       =   0.      0:d       = 417.1809m
 +0:vo1     =  23.2159n 0:vout    =   1.8000  0:vss     =   1.8000 

 ******  
 .option accurate post

  ******  transient analysis tnom=  25.000 temp=  25.000 *****
 tplh_b0ar= 894.5131p  targ=   9.0445n   trig=   8.1500n
 tphl_b0af= 621.8265p  targ=  16.6718n   trig=  16.0500n
 tplh_a0br= 900.0790p  targ=  20.9501n   trig=  20.0500n
 tphl_a0bf= 616.6882p  targ=  36.6667n   trig=  36.0500n
 tplh_arbr= 882.1618p  targ=  40.9322n   trig=  40.0500n

          ***** job concluded
1****** HSPICE -- H-2013.03-SP2 64-BIT (Aug 26 2013) win64 ******               
 ******  
 .option accurate post

  ******  job statistics summary tnom=  25.000 temp=  25.000 *****

  ******  HSPICE Threads Information  ******

  Command Line Threads Count :     1
  Available CPU Count        :     8
  Actual Threads Count       :     1


  ******  Circuit Statistics  ******
  # nodes       =       7 # elements   =      10
  # resistors   =       0 # capacitors =       1 # inductors   =       0
  # mutual_inds =       0 # vccs       =       0 # vcvs        =       0
  # cccs        =       0 # ccvs       =       0 # volt_srcs   =       3
  # curr_srcs   =       0 # diodes     =       0 # bjts        =       0
  # jfets       =       0 # mosfets    =       6 # U elements  =       0
  # T elements  =       0 # W elements =       0 # B elements  =       0
  # S elements  =       0 # P elements =       0 # va device   =       0
  # vector_srcs =       0 # N elements =       0


  ******  Runtime Statistics (seconds)  ******

  analysis           time    # points   tot. iter  conv.iter
  op point           0.07           1          20
  transient          0.07        6001         534         215 rev=         7
  readin             0.37
  errchk             0.21
  setup              0.01
  output             0.00


           peak memory used         40.63 megabytes
           total cpu time            0.75 seconds
           total elapsed time        1.23 seconds
           job started at     16:27:59 10/04/2019
           job ended   at     16:28:00 10/04/2019


  lic: Release hspice token(s) 
 lic: total license checkout elapse time:        0.18(s)
